1AZ8_lig_vina_out.pdbqt
 OpenBabel09182120193D

 32 33  0  0  1  0  0  0  0  0999 V2000
   29.6430   11.4950   17.8370 C   0  0  1  0  0  3  0  0  0  0  0  0
   29.2650   12.8990   17.9560 C   0  0  0  0  0  0  0  0  0  0  0  0
   28.8050   13.5010   19.1420 C   0  0  0  0  0  3  0  0  0  0  0  0
   28.4670   14.8540   19.1530 C   0  0  0  0  0  3  0  0  0  0  0  0
   28.5900   15.5870   17.9790 C   0  0  0  0  0  3  0  0  0  0  0  0
   29.0910   14.9870   16.8190 C   0  0  0  0  0  0  0  0  0  0  0  0
   29.4200   13.6500   16.8070 C   0  0  0  0  0  3  0  0  0  0  0  0
   29.2460   15.7750   15.5610 C   0  0  0  0  0  0  0  0  0  0  0  0
   28.5920   16.8960   15.4570 N   0  0  0  0  0  0  0  0  0  0  0  0
   28.0390   17.2150   16.2070 H   0  0  0  0  0  0  0  0  0  0  0  0
   29.9740   15.3770   14.5440 N   0  0  0  0  0  0  0  0  0  0  0  0
   29.7180   14.5700   14.0420 H   0  0  0  0  0  0  0  0  0  0  0  0
   30.7760   15.8850   14.2840 H   0  0  0  0  0  0  0  0  0  0  0  0
   31.1190   11.4110   18.1760 C   0  0  0  0  0  2  0  0  0  0  0  0
   31.6060   10.0070   18.4650 C   0  0  0  0  0  2  0  0  0  0  0  0
   33.0650    9.9280   18.0780 C   0  0  0  0  0  0  0  0  0  0  0  0
   33.3890    9.8310   16.7290 C   0  0  0  0  0  3  0  0  0  0  0  0
   34.7320    9.8140   16.3430 C   0  0  0  0  0  3  0  0  0  0  0  0
   35.7710    9.8270   17.2960 C   0  0  0  0  0  0  0  0  0  0  0  0
   35.4330    9.8930   18.6580 C   0  0  0  0  0  3  0  0  0  0  0  0
   34.0900    9.9670   19.0390 C   0  0  0  0  0  3  0  0  0  0  0  0
   37.2190    9.7320   16.8280 C   0  0  0  0  0  0  0  0  0  0  0  0
   38.1060   10.6190   17.2370 N   0  0  0  0  0  0  0  0  0  0  0  0
   37.8310   11.3490   17.8360 H   0  0  0  0  0  0  0  0  0  0  0  0
   37.6420    8.7600   16.0160 N   0  0  0  0  0  0  0  0  0  0  0  0
   38.2470    8.0620   16.3570 H   0  0  0  0  0  0  0  0  0  0  0  0
   37.3490    8.7420   15.0760 H   0  0  0  0  0  0  0  0  0  0  0  0
   28.7630   10.5150   18.6500 C   0  0  0  0  0  2  0  0  0  0  0  0
   27.3310   10.2830   18.1340 C   0  0  0  0  0  0  0  0  0  0  0  0
   27.1420    9.7550   17.0370 O   0  0  0  0  0  0  0  0  0  0  0  0
   26.2830   10.6350   18.9590 O   0  0  0  0  0  0  0  0  0  0  0  0
   26.3940   10.9710   20.3380 C   0  0  0  0  0  1  0  0  0  0  0  0
  1  2  1  0  0  0  0
  1 14  1  1  0  0  0
  1 28  1  0  0  0  0
  2  3  1  0  0  0  0
  3  4  2  0  0  0  0
  5  4  1  0  0  0  0
  6  5  2  0  0  0  0
  7  6  1  0  0  0  0
  7  2  2  0  0  0  0
  8  6  1  0  0  0  0
  9  8  2  0  0  0  0
  9 10  1  0  0  0  0
 11  8  1  0  0  0  0
 12 11  1  0  0  0  0
 13 11  1  0  0  0  0
 14 15  1  0  0  0  0
 16 15  1  0  0  0  0
 16 21  1  0  0  0  0
 17 16  2  0  0  0  0
 18 17  1  0  0  0  0
 18 19  2  0  0  0  0
 19 20  1  0  0  0  0
 20 21  2  0  0  0  0
 22 23  2  0  0  0  0
 22 19  1  0  0  0  0
 23 24  1  0  0  0  0
 25 26  1  0  0  0  0
 25 22  1  0  0  0  0
 27 25  1  0  0  0  0
 29 28  1  0  0  0  0
 29 31  1  0  0  0  0
 30 29  2  0  0  0  0
 31 32  1  0  0  0  0
M  END
>  <Pose>
1

>  <Score>
-7.669

$$$$
1AZ8_lig_vina_out.pdbqt
 OpenBabel09182120193D

 32 33  0  0  1  0  0  0  0  0999 V2000
   29.3370   11.4000   17.9250 C   0  0  1  0  0  3  0  0  0  0  0  0
   29.0910   12.8350   18.0180 C   0  0  0  0  0  0  0  0  0  0  0  0
   28.6430   13.4910   19.1800 C   0  0  0  0  0  3  0  0  0  0  0  0
   28.4360   14.8710   19.1670 C   0  0  0  0  0  3  0  0  0  0  0  0
   28.6780   15.5750   17.9940 C   0  0  0  0  0  3  0  0  0  0  0  0
   29.1660   14.9180   16.8600 C   0  0  0  0  0  0  0  0  0  0  0  0
   29.3650   13.5540   16.8710 C   0  0  0  0  0  3  0  0  0  0  0  0
   29.4480   15.6730   15.6050 C   0  0  0  0  0  0  0  0  0  0  0  0
   28.9460   16.8680   15.4840 N   0  0  0  0  0  0  0  0  0  0  0  0
   28.4220   17.2590   16.2200 H   0  0  0  0  0  0  0  0  0  0  0  0
   30.1410   15.1800   14.6050 N   0  0  0  0  0  0  0  0  0  0  0  0
   29.9140   15.4260   13.6800 H   0  0  0  0  0  0  0  0  0  0  0  0
   30.8880   14.5630   14.7810 H   0  0  0  0  0  0  0  0  0  0  0  0
   30.7740   11.1750   18.3540 C   0  0  0  0  0  2  0  0  0  0  0  0
   31.2610    9.7550   18.1550 C   0  0  0  0  0  2  0  0  0  0  0  0
   32.6900    9.6780   18.6410 C   0  0  0  0  0  0  0  0  0  0  0  0
   33.5850   10.6600   18.2290 C   0  0  0  0  0  3  0  0  0  0  0  0
   34.8970   10.6430   18.7090 C   0  0  0  0  0  3  0  0  0  0  0  0
   35.3560    9.6130   19.5550 C   0  0  0  0  0  0  0  0  0  0  0  0
   34.4530    8.6070   19.9410 C   0  0  0  0  0  3  0  0  0  0  0  0
   33.1260    8.6580   19.5040 C   0  0  0  0  0  3  0  0  0  0  0  0
   36.8160    9.5970   19.9930 C   0  0  0  0  0  0  0  0  0  0  0  0
   37.7780    9.6310   19.0910 N   0  0  0  0  0  0  0  0  0  0  0  0
   37.5540    9.6530   18.1340 H   0  0  0  0  0  0  0  0  0  0  0  0
   37.1730    9.5680   21.2800 N   0  0  0  0  0  0  0  0  0  0  0  0
   37.6440    8.7830   21.6430 H   0  0  0  0  0  0  0  0  0  0  0  0
   36.9640   10.3310   21.8660 H   0  0  0  0  0  0  0  0  0  0  0  0
   28.3170   10.5160   18.6830 C   0  0  0  0  0  2  0  0  0  0  0  0
   26.9130   10.3940   18.0630 C   0  0  0  0  0  0  0  0  0  0  0  0
   26.7470   10.5840   16.8570 O   0  0  0  0  0  0  0  0  0  0  0  0
   25.8740   10.0180   18.8870 O   0  0  0  0  0  0  0  0  0  0  0  0
   25.4500   10.7150   20.0540 C   0  0  0  0  0  1  0  0  0  0  0  0
  1  2  1  0  0  0  0
  1 14  1  1  0  0  0
  1 28  1  0  0  0  0
  2  3  1  0  0  0  0
  4  3  2  0  0  0  0
  5  4  1  0  0  0  0
  6  7  1  0  0  0  0
  6  5  2  0  0  0  0
  7  2  2  0  0  0  0
  8  6  1  0  0  0  0
  9  8  2  0  0  0  0
  9 10  1  0  0  0  0
 11 13  1  0  0  0  0
 11  8  1  0  0  0  0
 12 11  1  0  0  0  0
 15 14  1  0  0  0  0
 15 16  1  0  0  0  0
 16 21  1  0  0  0  0
 17 16  2  0  0  0  0
 17 18  1  0  0  0  0
 18 19  2  0  0  0  0
 19 20  1  0  0  0  0
 19 22  1  0  0  0  0
 21 20  2  0  0  0  0
 22 25  1  0  0  0  0
 23 22  2  0  0  0  0
 24 23  1  0  0  0  0
 25 26  1  0  0  0  0
 25 27  1  0  0  0  0
 29 28  1  0  0  0  0
 29 31  1  0  0  0  0
 30 29  2  0  0  0  0
 31 32  1  0  0  0  0
M  END
>  <Pose>
2

>  <Score>
-7.491

$$$$
1AZ8_lig_vina_out.pdbqt
 OpenBabel09182120193D

 32 33  0  0  1  0  0  0  0  0999 V2000
   28.6740   11.4460   17.9180 C   0  0  1  0  0  3  0  0  0  0  0  0
   28.5460   12.8970   18.0000 C   0  0  0  0  0  0  0  0  0  0  0  0
   28.0320   13.5890   19.1130 C   0  0  0  0  0  3  0  0  0  0  0  0
   27.9500   14.9810   19.0930 C   0  0  0  0  0  3  0  0  0  0  0  0
   28.3800   15.6630   17.9610 C   0  0  0  0  0  3  0  0  0  0  0  0
   28.9310   14.9670   16.8810 C   0  0  0  0  0  0  0  0  0  0  0  0
   29.0070   13.5910   16.8990 C   0  0  0  0  0  3  0  0  0  0  0  0
   29.4150   15.6960   15.6720 C   0  0  0  0  0  0  0  0  0  0  0  0
   30.2620   15.0900   14.8910 N   0  0  0  0  0  0  0  0  0  0  0  0
   30.5430   14.1680   15.0900 H   0  0  0  0  0  0  0  0  0  0  0  0
   29.0610   16.9260   15.3810 N   0  0  0  0  0  0  0  0  0  0  0  0
   28.1070   17.1640   15.3300 H   0  0  0  0  0  0  0  0  0  0  0  0
   29.7490   17.6090   15.2130 H   0  0  0  0  0  0  0  0  0  0  0  0
   27.2920   10.9040   17.6110 C   0  0  0  0  0  2  0  0  0  0  0  0
   27.2980    9.5630   16.9080 C   0  0  0  0  0  2  0  0  0  0  0  0
   25.8840    9.0280   16.9080 C   0  0  0  0  0  0  0  0  0  0  0  0
   25.1210    9.1680   15.7540 C   0  0  0  0  0  3  0  0  0  0  0  0
   23.8320    8.6320   15.7100 C   0  0  0  0  0  3  0  0  0  0  0  0
   23.2590    8.0050   16.8350 C   0  0  0  0  0  0  0  0  0  0  0  0
   24.0260    7.8950   18.0070 C   0  0  0  0  0  3  0  0  0  0  0  0
   25.3360    8.3820   18.0300 C   0  0  0  0  0  3  0  0  0  0  0  0
   21.8220    7.5010   16.7610 C   0  0  0  0  0  0  0  0  0  0  0  0
   21.0930    7.7340   15.6870 N   0  0  0  0  0  0  0  0  0  0  0  0
   21.4720    8.2450   14.9360 H   0  0  0  0  0  0  0  0  0  0  0  0
   21.2610    6.8030   17.7520 N   0  0  0  0  0  0  0  0  0  0  0  0
   20.5650    7.2160   18.3130 H   0  0  0  0  0  0  0  0  0  0  0  0
   21.5430    5.8750   17.9210 H   0  0  0  0  0  0  0  0  0  0  0  0
   29.7680   10.9440   16.9450 C   0  0  0  0  0  2  0  0  0  0  0  0
   30.9380   10.1600   17.5660 C   0  0  0  0  0  0  0  0  0  0  0  0
   30.8920    8.9320   17.6450 O   0  0  0  0  0  0  0  0  0  0  0  0
   32.0470   10.8710   17.9740 O   0  0  0  0  0  0  0  0  0  0  0  0
   33.3510   10.3330   18.1640 C   0  0  0  0  0  1  0  0  0  0  0  0
  1 28  1  6  0  0  0
  1  2  1  0  0  0  0
  2  3  1  0  0  0  0
  4  3  2  0  0  0  0
  5  4  1  0  0  0  0
  6  7  1  0  0  0  0
  6  5  2  0  0  0  0
  7  2  2  0  0  0  0
  8  6  1  0  0  0  0
  9 10  1  0  0  0  0
  9  8  2  0  0  0  0
 11  8  1  0  0  0  0
 12 11  1  0  0  0  0
 13 11  1  0  0  0  0
 14  1  1  0  0  0  0
 15 16  1  0  0  0  0
 15 14  1  0  0  0  0
 16 21  1  0  0  0  0
 17 16  2  0  0  0  0
 18 17  1  0  0  0  0
 18 19  2  0  0  0  0
 19 20  1  0  0  0  0
 20 21  2  0  0  0  0
 22 19  1  0  0  0  0
 22 25  1  0  0  0  0
 23 22  2  0  0  0  0
 24 23  1  0  0  0  0
 25 27  1  0  0  0  0
 25 26  1  0  0  0  0
 28 29  1  0  0  0  0
 29 30  2  0  0  0  0
 29 31  1  0  0  0  0
 31 32  1  0  0  0  0
M  END
>  <Pose>
3

>  <Score>
-7.421

$$$$
1AZ8_lig_vina_out.pdbqt
 OpenBabel09182120193D

 32 33  0  0  1  0  0  0  0  0999 V2000
   29.4540   11.6520   18.2620 C   0  0  1  0  0  3  0  0  0  0  0  0
   29.0340   13.0480   18.1950 C   0  0  0  0  0  0  0  0  0  0  0  0
   28.3580   13.7250   19.2280 C   0  0  0  0  0  3  0  0  0  0  0  0
   27.9980   15.0620   19.0670 C   0  0  0  0  0  3  0  0  0  0  0  0
   28.3160   15.7050   17.8760 C   0  0  0  0  0  3  0  0  0  0  0  0
   29.0270   15.0330   16.8770 C   0  0  0  0  0  0  0  0  0  0  0  0
   29.3780   13.7110   17.0340 C   0  0  0  0  0  3  0  0  0  0  0  0
   29.3910   15.7250   15.6060 C   0  0  0  0  0  0  0  0  0  0  0  0
   30.1360   15.0840   14.7520 N   0  0  0  0  0  0  0  0  0  0  0  0
   30.4180   14.1610   14.9410 H   0  0  0  0  0  0  0  0  0  0  0  0
   29.0310   16.9560   15.3240 N   0  0  0  0  0  0  0  0  0  0  0  0
   28.5670   17.4990   16.0010 H   0  0  0  0  0  0  0  0  0  0  0  0
   29.2250   17.3350   14.4370 H   0  0  0  0  0  0  0  0  0  0  0  0
   28.2800   10.8700   18.8200 C   0  0  0  0  0  2  0  0  0  0  0  0
   27.0570   10.8740   17.9280 C   0  0  0  0  0  2  0  0  0  0  0  0
   25.9540   10.1270   18.6420 C   0  0  0  0  0  0  0  0  0  0  0  0
   25.4080    9.0050   18.0290 C   0  0  0  0  0  3  0  0  0  0  0  0
   24.4270    8.2640   18.6940 C   0  0  0  0  0  3  0  0  0  0  0  0
   23.9290    8.6660   19.9500 C   0  0  0  0  0  0  0  0  0  0  0  0
   24.4650    9.8190   20.5480 C   0  0  0  0  0  3  0  0  0  0  0  0
   25.4860   10.5260   19.9060 C   0  0  0  0  0  3  0  0  0  0  0  0
   22.8070    7.8660   20.6020 C   0  0  0  0  0  0  0  0  0  0  0  0
   22.0940    7.0190   19.8840 N   0  0  0  0  0  0  0  0  0  0  0  0
   22.2780    6.9120   18.9240 H   0  0  0  0  0  0  0  0  0  0  0  0
   22.5170    7.9750   21.9010 N   0  0  0  0  0  0  0  0  0  0  0  0
   21.5940    7.8320   22.2140 H   0  0  0  0  0  0  0  0  0  0  0  0
   23.2270    8.1980   22.5460 H   0  0  0  0  0  0  0  0  0  0  0  0
   30.0080   11.0770   16.9360 C   0  0  0  0  0  2  0  0  0  0  0  0
   31.3530   10.3310   17.0150 C   0  0  0  0  0  0  0  0  0  0  0  0
   31.6410    9.4760   16.1770 O   0  0  0  0  0  0  0  0  0  0  0  0
   32.2320   10.6900   18.0150 O   0  0  0  0  0  0  0  0  0  0  0  0
   33.6200   10.3780   18.0460 C   0  0  0  0  0  1  0  0  0  0  0  0
  1 28  1  6  0  0  0
  1 14  1  0  0  0  0
  2  1  1  0  0  0  0
  2  3  1  0  0  0  0
  4  3  2  0  0  0  0
  5  4  1  0  0  0  0
  6  7  1  0  0  0  0
  6  5  2  0  0  0  0
  7  2  2  0  0  0  0
  8  6  1  0  0  0  0
  9 10  1  0  0  0  0
  9  8  2  0  0  0  0
 11  8  1  0  0  0  0
 11 12  1  0  0  0  0
 13 11  1  0  0  0  0
 15 16  1  0  0  0  0
 15 14  1  0  0  0  0
 16 21  1  0  0  0  0
 17 16  2  0  0  0  0
 17 18  1  0  0  0  0
 18 19  2  0  0  0  0
 19 20  1  0  0  0  0
 19 22  1  0  0  0  0
 21 20  2  0  0  0  0
 22 25  1  0  0  0  0
 23 22  2  0  0  0  0
 24 23  1  0  0  0  0
 25 26  1  0  0  0  0
 25 27  1  0  0  0  0
 28 29  1  0  0  0  0
 29 31  1  0  0  0  0
 30 29  2  0  0  0  0
 31 32  1  0  0  0  0
M  END
>  <Pose>
4

>  <Score>
-7.333

$$$$
1AZ8_lig_vina_out.pdbqt
 OpenBabel09182120193D

 32 33  0  0  1  0  0  0  0  0999 V2000
   27.6830   10.0830   19.8960 C   0  0  1  0  0  3  0  0  0  0  0  0
   28.1760    9.0030   19.0480 C   0  0  0  0  0  0  0  0  0  0  0  0
   28.0100    7.6330   19.3290 C   0  0  0  0  0  3  0  0  0  0  0  0
   28.5210    6.6750   18.4530 C   0  0  0  0  0  3  0  0  0  0  0  0
   29.1910    7.0970   17.3120 C   0  0  0  0  0  3  0  0  0  0  0  0
   29.3090    8.4600   17.0230 C   0  0  0  0  0  0  0  0  0  0  0  0
   28.8100    9.4070   17.8900 C   0  0  0  0  0  3  0  0  0  0  0  0
   30.0090    8.9180   15.7870 C   0  0  0  0  0  0  0  0  0  0  0  0
   30.1510   10.1990   15.6040 N   0  0  0  0  0  0  0  0  0  0  0  0
   29.8280   10.8330   16.2840 H   0  0  0  0  0  0  0  0  0  0  0  0
   30.4510    8.0990   14.8610 N   0  0  0  0  0  0  0  0  0  0  0  0
   30.2370    8.2650   13.9150 H   0  0  0  0  0  0  0  0  0  0  0  0
   30.9970    7.3190   15.1140 H   0  0  0  0  0  0  0  0  0  0  0  0
   28.8490   11.0260   20.1220 C   0  0  0  0  0  2  0  0  0  0  0  0
   28.4400   12.4600   20.3850 C   0  0  0  0  0  2  0  0  0  0  0  0
   28.7150   13.2620   19.1330 C   0  0  0  0  0  0  0  0  0  0  0  0
   28.1130   14.5090   18.9980 C   0  0  0  0  0  3  0  0  0  0  0  0
   28.3960   15.2920   17.8770 C   0  0  0  0  0  3  0  0  0  0  0  0
   29.2290   14.8220   16.8430 C   0  0  0  0  0  0  0  0  0  0  0  0
   29.8080   13.5480   16.9730 C   0  0  0  0  0  3  0  0  0  0  0  0
   29.5680   12.7890   18.1220 C   0  0  0  0  0  3  0  0  0  0  0  0
   29.4490   15.6850   15.6050 C   0  0  0  0  0  0  0  0  0  0  0  0
   28.8840   16.8740   15.5190 N   0  0  0  0  0  0  0  0  0  0  0  0
   28.3100   17.2000   16.2490 H   0  0  0  0  0  0  0  0  0  0  0  0
   30.2180   15.2880   14.5880 N   0  0  0  0  0  0  0  0  0  0  0  0
   30.8840   14.5760   14.7230 H   0  0  0  0  0  0  0  0  0  0  0  0
   30.1190   15.7090   13.7030 H   0  0  0  0  0  0  0  0  0  0  0  0
   26.4080   10.7880   19.3740 C   0  0  0  0  0  2  0  0  0  0  0  0
   25.0690   10.0700   19.6280 C   0  0  0  0  0  0  0  0  0  0  0  0
   24.2710   10.5160   20.4530 O   0  0  0  0  0  0  0  0  0  0  0  0
   24.7800    8.9550   18.8700 O   0  0  0  0  0  0  0  0  0  0  0  0
   24.7590    8.9070   17.4470 C   0  0  0  0  0  1  0  0  0  0  0  0
  1 28  1  6  0  0  0
  1 14  1  0  0  0  0
  2  3  1  0  0  0  0
  2  1  1  0  0  0  0
  4  3  2  0  0  0  0
  5  4  1  0  0  0  0
  6  5  2  0  0  0  0
  6  7  1  0  0  0  0
  7  2  2  0  0  0  0
  8  6  1  0  0  0  0
  9  8  2  0  0  0  0
  9 10  1  0  0  0  0
 11 13  1  0  0  0  0
 11  8  1  0  0  0  0
 12 11  1  0  0  0  0
 14 15  1  0  0  0  0
 16 15  1  0  0  0  0
 17 16  1  0  0  0  0
 18 17  2  0  0  0  0
 19 20  2  0  0  0  0
 19 18  1  0  0  0  0
 20 21  1  0  0  0  0
 21 16  2  0  0  0  0
 22 19  1  0  0  0  0
 23 22  2  0  0  0  0
 23 24  1  0  0  0  0
 25 26  1  0  0  0  0
 25 22  1  0  0  0  0
 27 25  1  0  0  0  0
 28 29  1  0  0  0  0
 29 30  2  0  0  0  0
 31 29  1  0  0  0  0
 32 31  1  0  0  0  0
M  END
>  <Pose>
5

>  <Score>
-6.869

$$$$
1AZ8_lig_vina_out.pdbqt
 OpenBabel09182120193D

 32 33  0  0  1  0  0  0  0  0999 V2000
   27.5110   11.6830   20.7350 C   0  0  1  0  0  3  0  0  0  0  0  0
   28.4590   12.0490   19.6880 C   0  0  0  0  0  0  0  0  0  0  0  0
   29.5450   11.2490   19.2840 C   0  0  0  0  0  3  0  0  0  0  0  0
   30.3970   11.6900   18.2720 C   0  0  0  0  0  3  0  0  0  0  0  0
   30.1550   12.9240   17.6790 C   0  0  0  0  0  3  0  0  0  0  0  0
   29.0470   13.6870   18.0590 C   0  0  0  0  0  0  0  0  0  0  0  0
   28.2080   13.2540   19.0630 C   0  0  0  0  0  3  0  0  0  0  0  0
   28.7700   15.0020   17.4110 C   0  0  0  0  0  0  0  0  0  0  0  0
   29.5570   15.3870   16.4480 N   0  0  0  0  0  0  0  0  0  0  0  0
   30.2910   14.8030   16.1490 H   0  0  0  0  0  0  0  0  0  0  0  0
   27.8010   15.8040   17.7870 N   0  0  0  0  0  0  0  0  0  0  0  0
   27.7390   16.0930   18.7260 H   0  0  0  0  0  0  0  0  0  0  0  0
   27.1370   16.1150   17.1310 H   0  0  0  0  0  0  0  0  0  0  0  0
   26.2040   11.3490   20.0420 C   0  0  0  0  0  2  0  0  0  0  0  0
   25.9020    9.8670   19.9760 C   0  0  0  0  0  2  0  0  0  0  0  0
   25.6770    9.4990   18.5280 C   0  0  0  0  0  0  0  0  0  0  0  0
   24.5850    8.6990   18.2070 C   0  0  0  0  0  3  0  0  0  0  0  0
   24.3250    8.3920   16.8700 C   0  0  0  0  0  3  0  0  0  0  0  0
   25.1830    8.8210   15.8370 C   0  0  0  0  0  0  0  0  0  0  0  0
   26.3010    9.6030   16.1730 C   0  0  0  0  0  3  0  0  0  0  0  0
   26.5280    9.9560   17.5060 C   0  0  0  0  0  3  0  0  0  0  0  0
   24.8960    8.3990   14.4000 C   0  0  0  0  0  0  0  0  0  0  0  0
   25.7930    8.6120   13.4560 N   0  0  0  0  0  0  0  0  0  0  0  0
   26.6430    9.0550   13.6760 H   0  0  0  0  0  0  0  0  0  0  0  0
   23.7590    7.7930   14.0500 N   0  0  0  0  0  0  0  0  0  0  0  0
   22.9620    7.8720   14.6230 H   0  0  0  0  0  0  0  0  0  0  0  0
   23.7170    7.2680   13.2180 H   0  0  0  0  0  0  0  0  0  0  0  0
   28.0030   10.5750   21.6980 C   0  0  0  0  0  2  0  0  0  0  0  0
   27.9210   10.8830   23.2040 C   0  0  0  0  0  0  0  0  0  0  0  0
   27.2930   10.1390   23.9580 O   0  0  0  0  0  0  0  0  0  0  0  0
   28.6130   11.9780   23.6780 O   0  0  0  0  0  0  0  0  0  0  0  0
   29.3900   12.0120   24.8700 C   0  0  0  0  0  1  0  0  0  0  0  0
  1 14  1  6  0  0  0
  1 28  1  0  0  0  0
  2  1  1  0  0  0  0
  3  2  1  0  0  0  0
  4  3  2  0  0  0  0
  5  6  2  0  0  0  0
  5  4  1  0  0  0  0
  6  7  1  0  0  0  0
  7  2  2  0  0  0  0
  8 11  1  0  0  0  0
  8  6  1  0  0  0  0
  9  8  2  0  0  0  0
 10  9  1  0  0  0  0
 11 12  1  0  0  0  0
 13 11  1  0  0  0  0
 15 14  1  0  0  0  0
 16 15  1  0  0  0  0
 17 16  1  0  0  0  0
 18 17  2  0  0  0  0
 19 20  2  0  0  0  0
 19 18  1  0  0  0  0
 20 21  1  0  0  0  0
 21 16  2  0  0  0  0
 22 19  1  0  0  0  0
 23 24  1  0  0  0  0
 23 22  2  0  0  0  0
 25 22  1  0  0  0  0
 25 26  1  0  0  0  0
 27 25  1  0  0  0  0
 28 29  1  0  0  0  0
 29 31  1  0  0  0  0
 29 30  2  0  0  0  0
 31 32  1  0  0  0  0
M  END
>  <Pose>
6

>  <Score>
-6.710

$$$$
1AZ8_lig_vina_out.pdbqt
 OpenBabel09182120193D

 32 33  0  0  1  0  0  0  0  0999 V2000
   27.9500   11.0360   19.5630 C   0  0  1  0  0  3  0  0  0  0  0  0
   28.1910   10.3920   20.8500 C   0  0  0  0  0  0  0  0  0  0  0  0
   28.4700    9.0210   21.0120 C   0  0  0  0  0  3  0  0  0  0  0  0
   28.6850    8.4990   22.2870 C   0  0  0  0  0  3  0  0  0  0  0  0
   28.6170    9.3510   23.3830 C   0  0  0  0  0  3  0  0  0  0  0  0
   28.3840   10.7190   23.2030 C   0  0  0  0  0  0  0  0  0  0  0  0
   28.1660   11.2330   21.9440 C   0  0  0  0  0  3  0  0  0  0  0  0
   28.3320   11.6420   24.3740 C   0  0  0  0  0  0  0  0  0  0  0  0
   29.3100   12.4880   24.5300 N   0  0  0  0  0  0  0  0  0  0  0  0
   30.0390   12.5240   23.8700 H   0  0  0  0  0  0  0  0  0  0  0  0
   27.3750   11.6170   25.2710 N   0  0  0  0  0  0  0  0  0  0  0  0
   27.5030   12.0630   26.1390 H   0  0  0  0  0  0  0  0  0  0  0  0
   26.5290   11.1530   25.0760 H   0  0  0  0  0  0  0  0  0  0  0  0
   26.4480   11.1990   19.4320 C   0  0  0  0  0  2  0  0  0  0  0  0
   25.8020   10.2110   18.4840 C   0  0  0  0  0  2  0  0  0  0  0  0
   24.8450    9.3540   19.2820 C   0  0  0  0  0  0  0  0  0  0  0  0
   24.5590    9.7220   20.5920 C   0  0  0  0  0  3  0  0  0  0  0  0
   23.6350    8.9790   21.3300 C   0  0  0  0  0  3  0  0  0  0  0  0
   23.0320    7.8200   20.8000 C   0  0  0  0  0  0  0  0  0  0  0  0
   23.3520    7.4380   19.4860 C   0  0  0  0  0  3  0  0  0  0  0  0
   24.2330    8.2160   18.7300 C   0  0  0  0  0  3  0  0  0  0  0  0
   22.0870    7.0010   21.6720 C   0  0  0  0  0  0  0  0  0  0  0  0
   20.9480    7.5240   22.0860 N   0  0  0  0  0  0  0  0  0  0  0  0
   20.7140    8.4480   21.8420 H   0  0  0  0  0  0  0  0  0  0  0  0
   22.3580    5.7440   22.0290 N   0  0  0  0  0  0  0  0  0  0  0  0
   23.1420    5.2820   21.6520 H   0  0  0  0  0  0  0  0  0  0  0  0
   21.7740    5.2770   22.6700 H   0  0  0  0  0  0  0  0  0  0  0  0
   28.7380   12.3490   19.3380 C   0  0  0  0  0  2  0  0  0  0  0  0
   28.4130   13.1380   18.0560 C   0  0  0  0  0  0  0  0  0  0  0  0
   28.5040   12.5980   16.9530 O   0  0  0  0  0  0  0  0  0  0  0  0
   27.9720   14.4380   18.1920 O   0  0  0  0  0  0  0  0  0  0  0  0
   28.7890   15.6010   18.1110 C   0  0  0  0  0  1  0  0  0  0  0  0
  1 28  1  1  0  0  0
  1  2  1  0  0  0  0
  2  3  2  0  0  0  0
  2  7  1  0  0  0  0
  3  4  1  0  0  0  0
  4  5  2  0  0  0  0
  6  5  1  0  0  0  0
  6  8  1  0  0  0  0
  7  6  2  0  0  0  0
  8  9  2  0  0  0  0
  8 11  1  0  0  0  0
 10  9  1  0  0  0  0
 11 12  1  0  0  0  0
 13 11  1  0  0  0  0
 14  1  1  0  0  0  0
 15 16  1  0  0  0  0
 15 14  1  0  0  0  0
 16 17  1  0  0  0  0
 17 18  2  0  0  0  0
 19 18  1  0  0  0  0
 19 22  1  0  0  0  0
 20 19  2  0  0  0  0
 21 16  2  0  0  0  0
 21 20  1  0  0  0  0
 22 25  1  0  0  0  0
 22 23  2  0  0  0  0
 24 23  1  0  0  0  0
 25 27  1  0  0  0  0
 26 25  1  0  0  0  0
 29 31  1  0  0  0  0
 29 28  1  0  0  0  0
 30 29  2  0  0  0  0
 32 31  1  0  0  0  0
M  END
>  <Pose>
7

>  <Score>
-6.674

$$$$
1AZ8_lig_vina_out.pdbqt
 OpenBabel09182120193D

 32 33  0  0  1  0  0  0  0  0999 V2000
   29.2140   11.3830   17.7030 C   0  0  1  0  0  3  0  0  0  0  0  0
   29.0090   12.8190   17.8580 C   0  0  0  0  0  0  0  0  0  0  0  0
   28.5970   13.4380   19.0530 C   0  0  0  0  0  3  0  0  0  0  0  0
   28.4270   14.8220   19.0990 C   0  0  0  0  0  3  0  0  0  0  0  0
   28.6680   15.5670   17.9510 C   0  0  0  0  0  3  0  0  0  0  0  0
   29.1210   14.9440   16.7840 C   0  0  0  0  0  0  0  0  0  0  0  0
   29.2830   13.5770   16.7370 C   0  0  0  0  0  3  0  0  0  0  0  0
   29.4020   15.7420   15.5550 C   0  0  0  0  0  0  0  0  0  0  0  0
   28.9450   16.9600   15.4990 N   0  0  0  0  0  0  0  0  0  0  0  0
   28.4560   17.3380   16.2650 H   0  0  0  0  0  0  0  0  0  0  0  0
   30.0500   15.2660   14.5170 N   0  0  0  0  0  0  0  0  0  0  0  0
   30.6570   15.8490   14.0070 H   0  0  0  0  0  0  0  0  0  0  0  0
   29.9280   14.3270   14.2500 H   0  0  0  0  0  0  0  0  0  0  0  0
   27.8610   10.7810   17.3780 C   0  0  0  0  0  2  0  0  0  0  0  0
   27.6230    9.4230   18.0030 C   0  0  0  0  0  2  0  0  0  0  0  0
   27.7260    9.5740   19.5030 C   0  0  0  0  0  0  0  0  0  0  0  0
   28.7420    8.8970   20.1710 C   0  0  0  0  0  3  0  0  0  0  0  0
   28.8920    9.0650   21.5490 C   0  0  0  0  0  3  0  0  0  0  0  0
   27.9950    9.8570   22.2950 C   0  0  0  0  0  0  0  0  0  0  0  0
   26.9530   10.5120   21.6170 C   0  0  0  0  0  3  0  0  0  0  0  0
   26.8390   10.3870   20.2290 C   0  0  0  0  0  3  0  0  0  0  0  0
   28.1570    9.9510   23.8080 C   0  0  0  0  0  0  0  0  0  0  0  0
   29.3540   10.1140   24.3370 N   0  0  0  0  0  0  0  0  0  0  0  0
   30.1460   10.1640   23.7550 H   0  0  0  0  0  0  0  0  0  0  0  0
   27.1150    9.8890   24.6410 N   0  0  0  0  0  0  0  0  0  0  0  0
   26.2030    9.7860   24.2820 H   0  0  0  0  0  0  0  0  0  0  0  0
   27.2580    9.9460   25.6130 H   0  0  0  0  0  0  0  0  0  0  0  0
   30.3250   10.9900   16.6980 C   0  0  0  0  0  2  0  0  0  0  0  0
   30.9310    9.5830   16.8540 C   0  0  0  0  0  0  0  0  0  0  0  0
   30.5430    8.6570   16.1420 O   0  0  0  0  0  0  0  0  0  0  0  0
   31.9470    9.4170   17.7710 O   0  0  0  0  0  0  0  0  0  0  0  0
   32.8440   10.4340   18.2050 C   0  0  0  0  0  1  0  0  0  0  0  0
  1 28  1  6  0  0  0
  1  2  1  0  0  0  0
  2  3  1  0  0  0  0
  3  4  2  0  0  0  0
  5  4  1  0  0  0  0
  6  5  2  0  0  0  0
  7  6  1  0  0  0  0
  7  2  2  0  0  0  0
  8  6  1  0  0  0  0
  9  8  2  0  0  0  0
  9 10  1  0  0  0  0
 11  8  1  0  0  0  0
 12 11  1  0  0  0  0
 13 11  1  0  0  0  0
 14  1  1  0  0  0  0
 14 15  1  0  0  0  0
 15 16  1  0  0  0  0
 16 17  2  0  0  0  0
 16 21  1  0  0  0  0
 17 18  1  0  0  0  0
 18 19  2  0  0  0  0
 19 22  1  0  0  0  0
 20 19  1  0  0  0  0
 21 20  2  0  0  0  0
 22 23  2  0  0  0  0
 22 25  1  0  0  0  0
 24 23  1  0  0  0  0
 25 27  1  0  0  0  0
 26 25  1  0  0  0  0
 28 29  1  0  0  0  0
 29 31  1  0  0  0  0
 30 29  2  0  0  0  0
 31 32  1  0  0  0  0
M  END
>  <Pose>
8

>  <Score>
-6.605

$$$$
1AZ8_lig_vina_out.pdbqt
 OpenBabel09182120193D

 32 33  0  0  1  0  0  0  0  0999 V2000
   29.9050   11.8710   18.3620 C   0  0  1  0  0  3  0  0  0  0  0  0
   28.6960   11.4830   19.0800 C   0  0  0  0  0  0  0  0  0  0  0  0
   27.4380   11.2920   18.4760 C   0  0  0  0  0  3  0  0  0  0  0  0
   26.3400   10.9200   19.2520 C   0  0  0  0  0  3  0  0  0  0  0  0
   26.5120   10.7470   20.6200 C   0  0  0  0  0  3  0  0  0  0  0  0
   27.7760   10.8950   21.1990 C   0  0  0  0  0  0  0  0  0  0  0  0
   28.8590   11.2670   20.4340 C   0  0  0  0  0  3  0  0  0  0  0  0
   27.9710   10.6880   22.6640 C   0  0  0  0  0  0  0  0  0  0  0  0
   28.3700    9.5160   23.0690 N   0  0  0  0  0  0  0  0  0  0  0  0
   28.5620    8.8080   22.4130 H   0  0  0  0  0  0  0  0  0  0  0  0
   27.7220   11.6110   23.5640 N   0  0  0  0  0  0  0  0  0  0  0  0
   26.7920   11.8580   23.7710 H   0  0  0  0  0  0  0  0  0  0  0  0
   28.4660   12.0560   24.0300 H   0  0  0  0  0  0  0  0  0  0  0  0
   30.8320   10.6720   18.3870 C   0  0  0  0  0  2  0  0  0  0  0  0
   31.5110   10.3900   17.0640 C   0  0  0  0  0  2  0  0  0  0  0  0
   32.9960   10.2600   17.3180 C   0  0  0  0  0  0  0  0  0  0  0  0
   33.8290    9.9630   16.2460 C   0  0  0  0  0  3  0  0  0  0  0  0
   35.2100    9.8930   16.4450 C   0  0  0  0  0  3  0  0  0  0  0  0
   35.7770   10.0540   17.7250 C   0  0  0  0  0  0  0  0  0  0  0  0
   34.9240   10.3240   18.8090 C   0  0  0  0  0  3  0  0  0  0  0  0
   33.5480   10.4490   18.5970 C   0  0  0  0  0  3  0  0  0  0  0  0
   37.2830    9.8960   17.9040 C   0  0  0  0  0  0  0  0  0  0  0  0
   38.1150   10.5640   17.1280 N   0  0  0  0  0  0  0  0  0  0  0  0
   37.7640   11.1560   16.4240 H   0  0  0  0  0  0  0  0  0  0  0  0
   37.8100    9.1070   18.8430 N   0  0  0  0  0  0  0  0  0  0  0  0
   38.7500    9.2210   19.1130 H   0  0  0  0  0  0  0  0  0  0  0  0
   37.2570    8.4100   19.2660 H   0  0  0  0  0  0  0  0  0  0  0  0
   29.6620   12.4380   16.9420 C   0  0  0  0  0  2  0  0  0  0  0  0
   29.3820   13.9490   16.8390 C   0  0  0  0  0  0  0  0  0  0  0  0
   30.0370   14.6520   16.0690 O   0  0  0  0  0  0  0  0  0  0  0  0
   28.3510   14.4670   17.5940 O   0  0  0  0  0  0  0  0  0  0  0  0
   28.4980   15.3630   18.6900 C   0  0  0  0  0  1  0  0  0  0  0  0
  1 28  1  6  0  0  0
  1 14  1  0  0  0  0
  1  2  1  0  0  0  0
  2  7  1  0  0  0  0
  3  2  2  0  0  0  0
  3  4  1  0  0  0  0
  4  5  2  0  0  0  0
  5  6  1  0  0  0  0
  6  8  1  0  0  0  0
  7  6  2  0  0  0  0
  8  9  2  0  0  0  0
  8 11  1  0  0  0  0
 10  9  1  0  0  0  0
 11 12  1  0  0  0  0
 11 13  1  0  0  0  0
 15 16  1  0  0  0  0
 15 14  1  0  0  0  0
 16 21  1  0  0  0  0
 17 18  1  0  0  0  0
 17 16  2  0  0  0  0
 18 19  2  0  0  0  0
 19 22  1  0  0  0  0
 19 20  1  0  0  0  0
 21 20  2  0  0  0  0
 22 25  1  0  0  0  0
 23 22  2  0  0  0  0
 24 23  1  0  0  0  0
 25 26  1  0  0  0  0
 25 27  1  0  0  0  0
 29 28  1  0  0  0  0
 29 31  1  0  0  0  0
 30 29  2  0  0  0  0
 31 32  1  0  0  0  0
M  END
>  <Pose>
9

>  <Score>
-6.573

$$$$
1AZ8_lig_vina_out.pdbqt
 OpenBabel09182120193D

 32 33  0  0  1  0  0  0  0  0999 V2000
   25.7280    9.9430   18.3770 C   0  0  1  0  0  3  0  0  0  0  0  0
   27.1080   10.3810   18.5570 C   0  0  0  0  0  0  0  0  0  0  0  0
   28.0890    9.6520   19.2560 C   0  0  0  0  0  3  0  0  0  0  0  0
   29.3830   10.1580   19.3740 C   0  0  0  0  0  3  0  0  0  0  0  0
   29.6790   11.3860   18.7940 C   0  0  0  0  0  3  0  0  0  0  0  0
   28.7070   12.0780   18.0650 C   0  0  0  0  0  0  0  0  0  0  0  0
   27.4280   11.5810   17.9530 C   0  0  0  0  0  3  0  0  0  0  0  0
   29.0270   13.3870   17.4220 C   0  0  0  0  0  0  0  0  0  0  0  0
   29.3470   13.3860   16.1600 N   0  0  0  0  0  0  0  0  0  0  0  0
   29.3450   12.5430   15.6520 H   0  0  0  0  0  0  0  0  0  0  0  0
   29.0390   14.5270   18.0720 N   0  0  0  0  0  0  0  0  0  0  0  0
   29.5780   14.6210   18.8900 H   0  0  0  0  0  0  0  0  0  0  0  0
   28.5090   15.2870   17.7410 H   0  0  0  0  0  0  0  0  0  0  0  0
   25.7820    8.6320   17.6170 C   0  0  0  0  0  2  0  0  0  0  0  0
   26.0500    8.7900   16.1350 C   0  0  0  0  0  2  0  0  0  0  0  0
   24.7350    8.6490   15.4040 C   0  0  0  0  0  0  0  0  0  0  0  0
   24.7480    8.1510   14.1050 C   0  0  0  0  0  3  0  0  0  0  0  0
   23.5410    7.9590   13.4290 C   0  0  0  0  0  3  0  0  0  0  0  0
   22.3080    8.3190   14.0090 C   0  0  0  0  0  0  0  0  0  0  0  0
   22.3070    8.8500   15.3100 C   0  0  0  0  0  3  0  0  0  0  0  0
   23.5110    8.9890   16.0060 C   0  0  0  0  0  3  0  0  0  0  0  0
   21.0240    8.1580   13.2030 C   0  0  0  0  0  0  0  0  0  0  0  0
   21.0100    7.3970   12.1250 N   0  0  0  0  0  0  0  0  0  0  0  0
   21.8330    6.9420   11.8340 H   0  0  0  0  0  0  0  0  0  0  0  0
   19.8820    8.7530   13.5560 N   0  0  0  0  0  0  0  0  0  0  0  0
   19.9020    9.5700   14.1050 H   0  0  0  0  0  0  0  0  0  0  0  0
   19.0200    8.3740   13.2670 H   0  0  0  0  0  0  0  0  0  0  0  0
   24.8950    9.8700   19.6800 C   0  0  0  0  0  2  0  0  0  0  0  0
   24.4640    8.4670   20.1470 C   0  0  0  0  0  0  0  0  0  0  0  0
   25.1650    7.8300   20.9330 O   0  0  0  0  0  0  0  0  0  0  0  0
   23.2530    7.9820   19.6990 O   0  0  0  0  0  0  0  0  0  0  0  0
   22.4520    7.0140   20.3670 C   0  0  0  0  0  1  0  0  0  0  0  0
  1 14  1  1  0  0  0
  1  2  1  0  0  0  0
  1 28  1  0  0  0  0
  2  3  1  0  0  0  0
  3  4  2  0  0  0  0
  5  4  1  0  0  0  0
  6  5  2  0  0  0  0
  7  6  1  0  0  0  0
  7  2  2  0  0  0  0
  8  6  1  0  0  0  0
  8 11  1  0  0  0  0
  9  8  2  0  0  0  0
 10  9  1  0  0  0  0
 11 12  1  0  0  0  0
 13 11  1  0  0  0  0
 15 14  1  0  0  0  0
 16 21  1  0  0  0  0
 16 15  1  0  0  0  0
 17 16  2  0  0  0  0
 18 19  2  0  0  0  0
 18 17  1  0  0  0  0
 19 20  1  0  0  0  0
 20 21  2  0  0  0  0
 22 25  1  0  0  0  0
 22 19  1  0  0  0  0
 23 22  2  0  0  0  0
 24 23  1  0  0  0  0
 25 26  1  0  0  0  0
 27 25  1  0  0  0  0
 28 29  1  0  0  0  0
 29 30  2  0  0  0  0
 31 29  1  0  0  0  0
 31 32  1  0  0  0  0
M  END
>  <Pose>
10

>  <Score>
-6.368

$$$$
